Distribution/13Bus_not_used/Master.dss
Clear 

new circuit.IEEE13Nodeckt 
~ basekv=115 pu=1.0501 phases=3 bus1=SourceBus  
~ Angle=30                                                         ! advance angle 30 deg so result agree with published angle
~ MVAsc3=20000 MVASC1=21000    ! stiffen the source to approximate inf source

redirect IEEELineCodes.dss
redirect IEEE13Nodeckt.dss

Set Voltagebases=[115, 4.16, .48]
calcv
Solve
BusCoords IEEE13Node_BusXY.csv


!---------------------------------------------------------------------------------------------------------------------------------------------------
!----------------Show some Results -----------------------------------------------------------------------------------------------------------------
!---------------------------------------------------------------------------------------------------------------------------------------------------


Show Voltages LN Nodes
// Show Currents Elem
// Show Powers kVA Elem
Show Losses
Show Taps

!---------------------------------------------------------------------------------------------------------------------------------------------------
!---------------------------------------------------------------------------------------------------------------------------------------------------
! Alternate Solution Script
! To force the taps to be same as published results, set the transformer taps manually and disable the controls
!---------------------------------------------------------------------------------------------------------------------------------------------------
/*
Transformer.Reg1.Taps=[1.0 1.0625]
Transformer.Reg2.Taps=[1.0 1.0500]
Transformer.Reg3.Taps=[1.0 1.06875]
Set Controlmode=OFF

Solve
*/